** 
** MATERIALS
** 
*Material, name=hyperelastic
*Hyperelastic, neo hooke
0.0008389261744966443, 24.00000000000002
