** 
** MATERIALS
** 
*Material, name=hyperelastic
*Hyperelastic, neo hooke
0.0006726064356221684, 1357.4706245804714
